version 2
1
9
.tran 10m 10 1{return}.kicad adjustpaths{return}.save all{return}.probe alli
1
1
V(Net-_BR1-+_)
 
